%NProcShared=12
%Chk=04_24_Homework42a_Interm2.chk
#n RHF/6-31G(d,p) Opt

 Title

0 1
C  
C   1 B1
H   2 B2 1 A2
H   2 B3 1 A3 3 D3
H   2 B4 1 A4 3 D4
C   1 B5 2 A5 3 D5
H   6 B6 1 A6 2 D6
H   6 B7 1 A7 2 D7
H   6 B8 1 A8 2 D8
C   1 B9 2 A9 3 D9
H   1 B10 2 A10 3 D10
H   10 B11 1 A11 2 D11
H   10 B12 1 A12 2 D12
Variables:
B1        1.52758
B2        1.09598
A2      111.52430
B3        1.09580
A3      111.07246
D3      239.63364
B4        1.09536
A4      110.68640
D4      120.15653
B5        1.52757
A5      110.39431
D5      298.39932
B6        1.09536
A6      110.68854
D6      301.51020
B7        1.09580
A7      111.07007
D7      182.03215
B8        1.09598
A8      111.52419
D8       61.66837
B9        1.49904
A9      110.74852
D9       61.42420
B10        1.09653
A10      108.41835
D10      179.77173
B11        1.08509
A11      120.28321
D11      200.46205
B12        1.08510
A12      120.28223
D12       36.68466

