%NProcShared=12
%Chk=04_24_Homework42a_Interm1.chk
#n RHF/6-31G(d,p) Opt

 2bint1

0 1
C  
C   1 B1
H   1 B2 2 A2
H   1 B3 2 A3 3 D3
H   1 B4 2 A4 3 D4
C   2 B5 1 A5 3 D5
H   6 B6 2 A6 1 D6
H   6 B7 2 A7 1 D7
H   6 B8 2 A8 1 D8
C   2 B9 1 A9 3 D9
H   10 B10 2 A10 1 D10
H   10 B11 2 A11 1 D11
H   10 B12 2 A12 1 D12
Variables:
B1        1.49348
B2        1.09435
A2      110.83201
B3        1.09411
A3      110.41652
D3      239.66679
B4        1.09435
A4      110.83083
D4      119.33340
B5        1.49349
A5      118.50966
D5      198.27996
B6        1.09435
A6      110.83235
D6       42.32794
B7        1.09435
A7      110.83070
D7      161.66138
B8        1.09411
A8      110.41658
D8      281.99470
B9        1.49348
A9      118.50956
D9       42.33467
B10        1.09435
A10      110.83064
D10      317.61118
B11        1.09435
A11      110.83234
D11      198.27765
B12        1.09411
A12      110.41651
D12       77.94436

