%NProcShared=12
%Chk=04_24_Homework42d_Prod1.chk
#n RHF/6-31G(d,p) Opt

 Title

0 1
C  
C   1 B1
H   2 B2 1 A2
H   2 B3 1 A3 3 D3
H   2 B4 1 A4 3 D4
C   1 B5 2 A5 3 D5
H   6 B6 1 A6 2 D6
H   6 B7 1 A7 2 D7
H   6 B8 1 A8 2 D8
C   1 B9 2 A9 3 D9
H   10 B10 1 A10 2 D10
H   10 B11 1 A11 2 D11
H   10 B12 1 A12 2 D12
Cl  1 B13 2 A13 3 D13
Variables:
B1        1.52974
B2        1.09603
A2      111.43499
B3        1.09603
A3      111.43496
D3      239.56415
B4        1.09594
A4      110.94930
D4      119.78210
B5        1.52974
A5      110.41924
D5      301.41795
B6        1.09594
A6      110.94927
D6      298.79979
B7        1.09603
A7      111.43497
D7      179.01776
B8        1.09603
A8      111.43499
D8       58.58191
B9        1.52974
A9      110.41932
D9      179.01758
B10        1.09594
A10      110.94930
D10       61.20011
B11        1.09603
A11      111.43496
D11      301.41802
B12        1.09603
A12      111.43499
D12      180.98219
B13        1.79757
A13      108.50568
D13       60.21771

