%NProcShared=12
%Chk=04_24_Homework42c_Interm2.chk
#n RHF/6-31G(d,p) pop=Reg Opt formcheck

 04_24_Homework42c_Interm2

0 1
C  
C   1 B1
H   2 B2 1 A2
H   2 B3 1 A3 3 D3
H   2 B4 1 A4 3 D4
C   1 B5 2 A5 3 D5
H   6 B6 1 A6 2 D6
H   6 B7 1 A7 2 D7
H   6 B8 1 A8 2 D8
C   1 B9 2 A9 3 D9
H   1 B10 2 A10 3 D10
H   10 B11 1 A11 2 D11
H   10 B12 1 A12 2 D12
Cl  11 B13 1 A13 2 D13
Variables:
B1        1.52752
B2        1.09600
A2      111.50112
B3        1.09576
A3      111.03673
D3      239.70283
B4        1.09520
A4      110.79541
D4      120.16612
B5        1.52751
A5      110.43157
D5      298.05755
B6        1.09517
A6      110.80258
D6      301.88831
B7        1.09576
A7      111.03215
D7      182.34756
B8        1.09600
A8      111.50190
D8       62.05150
B9        1.50309
A9      110.61150
D9       60.83777
B10        1.09618
A10      108.61407
D10      179.04163
B11        1.08436
A11      119.51177
D11      198.36226
B12        1.08432
A12      119.53183
D12       38.91600
B13        3.77271
A13      123.75726
D13       60.93733

