%NProcShared=12
%Chk=04_24_Homework42d_Reactant.chk
#n RHF/6-31G(d,p) Opt

 04_24_Homework42d_Reactant

0 1
C  
C   1 B1
H   1 B2 2 A2
H   1 B3 2 A3 3 D3
H   1 B4 2 A4 3 D4
C   2 B5 1 A5 3 D5
H   6 B6 2 A6 1 D6
H   6 B7 2 A7 1 D7
H   6 B8 2 A8 1 D8
C   2 B9 1 A9 3 D9
H   10 B10 2 A10 1 D10
H   10 B11 2 A11 1 D11
Variables:
B1        1.50142
B2        1.09512
A2      112.07592
B3        1.09481
A3      110.29142
D3      239.94651
B4        1.09481
A4      110.29154
D4      120.05328
B5        1.50142
A5      115.91264
D5      180.00373
B6        1.09481
A6      110.29151
D6      300.05711
B7        1.09512
A7      112.07590
D7      180.00373
B8        1.09481
A8      110.29138
D8       59.95031
B9        1.34226
A9      122.04371
D9        0.00370
B10        1.08590
A10      121.57202
D10        0.00005
B11        1.08590
A11      121.57210
D11      180.00004

